opendss_networks/LV26_205bus/lines.dss
new line.L_4 lineCode=ugsc_16cu_xlpe/nyl/pvc_ug_4w_bundled bus1=B407 bus2=B1202 length=0.0122843309413 units=km phases=4
new line.L_26 lineCode=uglv_240al_xlpe/nyl/pvc_ug_4w_bundled bus1=B3227 bus2=B1175 length=0.0719941256466 units=km phases=4
new line.L_64 lineCode=uglv_240al_xlpe/nyl/pvc_ug_4w_bundled bus1=B2365 bus2=B2953 length=0.0230694395404 units=km phases=4
new line.L_78 lineCode=uglv_240al_xlpe/nyl/pvc_ug_4w_bundled bus1=B988 bus2=B1971 length=0.0191873346653 units=km phases=4
new line.L_87 lineCode=ugsc_16cu_xlpe/nyl/pvc_ug_4w_bundled bus1=B2865 bus2=B3227 length=0.0555068536603 units=km phases=4
new line.L_98 lineCode=ugsc_16cu_xlpe/nyl/pvc_ug_4w_bundled bus1=B3137 bus2=B407 length=0.0109735764775 units=km phases=4
new line.L_225 lineCode=ugsc_16cu_xlpe/nyl/pvc_ug_4w_bundled bus1=B971 bus2=B2445 length=0.0182664178579 units=km phases=4
new line.L_234 lineCode=ugsc_16cu_xlpe/nyl/pvc_ug_4w_bundled bus1=B419 bus2=B1784 length=0.00545080086063 units=km phases=4
new line.L_243 lineCode=ugsc_16cu_xlpe/nyl/pvc_ug_4w_bundled bus1=B709 bus2=B72 length=0.0100441376005 units=km phases=4
new line.L_245 lineCode=ugsc_16cu_xlpe/nyl/pvc_ug_4w_bundled bus1=B2288 bus2=B1301 length=0.00994474983566 units=km phases=4
new line.L_276 lineCode=ugsc_16cu_xlpe/nyl/pvc_ug_4w_bundled bus1=B1406 bus2=B72 length=0.0203519835804 units=km phases=4
new line.L_333 lineCode=ugsc_16cu_xlpe/nyl/pvc_ug_4w_bundled bus1=B2037 bus2=B724 length=0.0149537607785 units=km phases=4
new line.L_365 lineCode=ugsc_16cu_xlpe/nyl/pvc_ug_4w_bundled bus1=B2865 bus2=B3202 length=0.00926010025337 units=km phases=4
new line.L_467 lineCode=ugsc_16cu_xlpe/nyl/pvc_ug_4w_bundled bus1=B2572 bus2=B669 length=0.0116339216323 units=km phases=4
new line.L_480 lineCode=ugsc_16cu_xlpe/nyl/pvc_ug_4w_bundled bus1=B2282 bus2=B762 length=0.0127392795168 units=km phases=4
new line.L_531 lineCode=uglv_240al_xlpe/nyl/pvc_ug_4w_bundled bus1=B471 bus2=B2838 length=0.0340709761560 units=km phases=4
new line.L_578 lineCode=ugsc_16cu_xlpe/nyl/pvc_ug_4w_bundled bus1=B1598 bus2=B1312 length=0.0175627883739 units=km phases=4
new line.L_600 lineCode=ugsc_16cu_xlpe/nyl/pvc_ug_4w_bundled bus1=B697 bus2=B305 length=0.0113448646086 units=km phases=4
new line.L_621 lineCode=generic/lv bus1=B3106 bus2=B1993 length=0.0232584825489 units=km phases=4
new line.L_623 lineCode=ugsc_16cu_xlpe/nyl/pvc_ug_4w_bundled bus1=B1668 bus2=B2445 length=0.0102773683858 units=km phases=4
new line.L_638 lineCode=ugsc_16cu_xlpe/nyl/pvc_ug_4w_bundled bus1=B1679 bus2=B1486 length=0.00503527668823 units=km phases=4
new line.L_660 lineCode=ugsc_16cu_xlpe/nyl/pvc_ug_4w_bundled bus1=B487 bus2=B1089 length=0.00483983231968 units=km phases=4
new line.L_669 lineCode=ugsc_16cu_xlpe/nyl/pvc_ug_4w_bundled bus1=B717 bus2=B2838 length=0.0255308705542 units=km phases=4
new line.L_691 lineCode=ugsc_16cu_xlpe/nyl/pvc_ug_4w_bundled bus1=B669 bus2=B667 length=0.0309740198955 units=km phases=4
new line.L_698 lineCode=ugsc_16cu_xlpe/nyl/pvc_ug_4w_bundled bus1=B3227 bus2=B2396 length=0.00854878171259 units=km phases=4
new line.L_741 lineCode=ugsc_16cu_xlpe/nyl/pvc_ug_4w_bundled bus1=B1567 bus2=B2865 length=0.0541854586198 units=km phases=4
new line.L_771 lineCode=ugsc_16cu_xlpe/nyl/pvc_ug_4w_bundled bus1=B2741 bus2=B1679 length=0.0145471731803 units=km phases=4
new line.L_782 lineCode=ughv_400al_triplex_ug_4w_bundled bus1=B2809 bus2=B573 length=0.000800000000000 units=km phases=4
new line.L_853 lineCode=ugsc_16cu_xlpe/nyl/pvc_ug_4w_bundled bus1=B1380 bus2=B1202 length=0.0100821895432 units=km phases=4
new line.L_855 lineCode=ugsc_16cu_xlpe/nyl/pvc_ug_4w_bundled bus1=B64 bus2=B1552 length=0.00975274342209 units=km phases=4
new line.L_862 lineCode=ugsc_16cu_xlpe/nyl/pvc_ug_4w_bundled bus1=B1864 bus2=B2133 length=0.0101021788294 units=km phases=4
new line.L_877 lineCode=uglv_240al_xlpe/nyl/pvc_ug_4w_bundled bus1=B2838 bus2=B573 length=0.0330989531344 units=km phases=4
new line.L_900 lineCode=ugsc_16cu_xlpe/nyl/pvc_ug_4w_bundled bus1=B3356 bus2=B2953 length=0.00963467506243 units=km phases=4
new line.L_938 lineCode=ugsc_16cu_xlpe/nyl/pvc_ug_4w_bundled bus1=B1152 bus2=B487 length=0.0106015544523 units=km phases=4
new line.L_949 lineCode=ugsc_16cu_xlpe/nyl/pvc_ug_4w_bundled bus1=B407 bus2=B2645 length=0.00563023420966 units=km phases=4
new line.L_1001 lineCode=ugsc_16cu_xlpe/nyl/pvc_ug_4w_bundled bus1=B729 bus2=B1377 length=0.0100144317438 units=km phases=4
new line.L_1005 lineCode=ugsc_16cu_xlpe/nyl/pvc_ug_4w_bundled bus1=B2676 bus2=B1552 length=0.0687588228601 units=km phases=4
new line.L_1053 lineCode=generic/lv bus1=B3248 bus2=B2476 length=0.0198209098076 units=km phases=4
new line.L_1062 lineCode=ugsc_16cu_xlpe/nyl/pvc_ug_4w_bundled bus1=B669 bus2=B1900 length=0.0150298260730 units=km phases=4
new line.L_1069 lineCode=ugsc_16cu_xlpe/nyl/pvc_ug_4w_bundled bus1=B1375 bus2=B1971 length=0.00341719329852 units=km phases=4
new line.L_1122 lineCode=ugsc_16cu_xlpe/nyl/pvc_ug_4w_bundled bus1=B2112 bus2=B1283 length=0.00548760189437 units=km phases=4
new line.L_1142 lineCode=ugsc_16cu_xlpe/nyl/pvc_ug_4w_bundled bus1=B1567 bus2=B2853 length=0.0101020879981 units=km phases=4
new line.L_1148 lineCode=ugsc_16cu_xlpe/nyl/pvc_ug_4w_bundled bus1=B1923 bus2=B724 length=0.0349108919254 units=km phases=4
new line.L_1166 lineCode=ughv_400al_triplex_ug_4w_bundled bus1=B2402 bus2=B1517 length=0.000327931211885 units=km phases=4
new line.L_1182 lineCode=ugsc_16cu_xlpe/nyl/pvc_ug_4w_bundled bus1=B692 bus2=B1172 length=0.00555797917280 units=km phases=4
new line.L_1189 lineCode=ugsc_16cu_xlpe/nyl/pvc_ug_4w_bundled bus1=B2631 bus2=B669 length=0.0117680459151 units=km phases=4
new line.L_1303 lineCode=ugsc_16cu_xlpe/nyl/pvc_ug_4w_bundled bus1=B1457 bus2=B1337 length=0.00866464139600 units=km phases=4
new line.L_1321 lineCode=generic/lv bus1=B2707 bus2=B669 length=0.0421018040371 units=km phases=4
new line.L_1348 lineCode=ugsc_16cu_xlpe/nyl/pvc_ug_4w_bundled bus1=B2707 bus2=B920 length=0.0211102427620 units=km phases=4
new line.L_1372 lineCode=ugsc_16cu_xlpe/nyl/pvc_ug_4w_bundled bus1=B1235 bus2=B931 length=0.00544172657614 units=km phases=4
new line.L_1398 lineCode=ugsc_16cu_xlpe/nyl/pvc_ug_4w_bundled bus1=B2293 bus2=B643 length=0.00591186173769 units=km phases=4
new line.L_1407 lineCode=ugsc_16cu_xlpe/nyl/pvc_ug_4w_bundled bus1=B845 bus2=B1337 length=0.0646314943012 units=km phases=4
new line.L_1412 lineCode=uglv_240al_xlpe/nyl/pvc_ug_4w_bundled bus1=B1971 bus2=B3390 length=0.0275025203310 units=km phases=4
new line.L_1425 lineCode=ugsc_16cu_xlpe/nyl/pvc_ug_4w_bundled bus1=B3100 bus2=B1971 length=0.00870746418546 units=km phases=4
new line.L_1435 lineCode=ugsc_16cu_xlpe/nyl/pvc_ug_4w_bundled bus1=B1455 bus2=B1160 length=0.00983986820588 units=km phases=4
new line.L_1438 lineCode=ughv_400al_triplex_ug_4w_bundled bus1=B2402 bus2=B1624 length=0.000255748683198 units=km phases=4
new line.L_1453 lineCode=ugsc_16cu_xlpe/nyl/pvc_ug_4w_bundled bus1=B203 bus2=B1172 length=0.0260264150906 units=km phases=4
new line.L_1476 lineCode=uglv_240al_xlpe/nyl/pvc_ug_4w_bundled bus1=B3390 bus2=B2445 length=0.0382229901017 units=km phases=4
new line.L_1487 lineCode=ugsc_16cu_xlpe/nyl/pvc_ug_4w_bundled bus1=B1148 bus2=B1740 length=0.0109314494603 units=km phases=4
new line.L_1593 lineCode=uglv_240al_xlpe/nyl/pvc_ug_4w_bundled bus1=B2838 bus2=B287 length=0.0670644838382 units=km phases=4
new line.L_1600 lineCode=ugsc_16cu_xlpe/nyl/pvc_ug_4w_bundled bus1=B1208 bus2=B1923 length=0.0266574467372 units=km phases=4
new line.L_1624 lineCode=ugsc_16cu_xlpe/nyl/pvc_ug_4w_bundled bus1=B1499 bus2=B2133 length=0.00552331837015 units=km phases=4
new line.L_1628 lineCode=uglv_240al_xlpe/nyl/pvc_ug_4w_bundled bus1=B2445 bus2=B1923 length=0.0375365424531 units=km phases=4
new line.L_1646 lineCode=ugsc_16cu_xlpe/nyl/pvc_ug_4w_bundled bus1=B2081 bus2=B988 length=0.0102311296458 units=km phases=4
new line.L_1650 lineCode=ugsc_16cu_xlpe/nyl/pvc_ug_4w_bundled bus1=B84 bus2=B433 length=0.0522636016363 units=km phases=4
new line.L_1656 lineCode=ugsc_16cu_xlpe/nyl/pvc_ug_4w_bundled bus1=B1734 bus2=B1312 length=0.0171636640496 units=km phases=4
new line.L_1665 lineCode=ugsc_16cu_xlpe/nyl/pvc_ug_4w_bundled bus1=B8 bus2=B573 length=0.0346974101319 units=km phases=4
new line.L_1670 lineCode=uglv_240al_xlpe/nyl/pvc_ug_4w_bundled bus1=B1160 bus2=B2282 length=0.0413853918592 units=km phases=4
new line.L_1693 lineCode=ugsc_16cu_xlpe/nyl/pvc_ug_4w_bundled bus1=B984 bus2=B1160 length=0.0107857355901 units=km phases=4
new line.L_1698 lineCode=ugsc_16cu_xlpe/nyl/pvc_ug_4w_bundled bus1=B942 bus2=B1235 length=0.0110735864556 units=km phases=4
new line.L_1733 lineCode=ugsc_16cu_xlpe/nyl/pvc_ug_4w_bundled bus1=B3067 bus2=B455 length=0.0116287020125 units=km phases=4
new line.L_1738 lineCode=ugsc_16cu_xlpe/nyl/pvc_ug_4w_bundled bus1=B110 bus2=B287 length=0.00904013443407 units=km phases=4
new line.L_1794 lineCode=ugsc_16cu_xlpe/nyl/pvc_ug_4w_bundled bus1=B1509 bus2=B3106 length=0.0114769019827 units=km phases=4
new line.L_1826 lineCode=ugsc_16cu_xlpe/nyl/pvc_ug_4w_bundled bus1=B1552 bus2=B1172 length=0.0216829391103 units=km phases=4
new line.L_1832 lineCode=ugsc_16cu_xlpe/nyl/pvc_ug_4w_bundled bus1=B433 bus2=B1567 length=0.0564902539271 units=km phases=4
new line.L_1841 lineCode=ugsc_16cu_xlpe/nyl/pvc_ug_4w_bundled bus1=B3402 bus2=B1312 length=0.0262285739151 units=km phases=4
new line.L_1842 lineCode=ugsc_16cu_xlpe/nyl/pvc_ug_4w_bundled bus1=B69 bus2=B1900 length=0.0103138961762 units=km phases=4
new line.L_1860 lineCode=ugsc_16cu_xlpe/nyl/pvc_ug_4w_bundled bus1=B10 bus2=B471 length=0.00544641622270 units=km phases=4
new line.L_1885 lineCode=ugsc_16cu_xlpe/nyl/pvc_ug_4w_bundled bus1=B3324 bus2=B15 length=0.0101819889167 units=km phases=4
new line.L_1904 lineCode=ugsc_16cu_xlpe/nyl/pvc_ug_4w_bundled bus1=B636 bus2=B2133 length=0.0103156943072 units=km phases=4
new line.L_1952 lineCode=ugsc_16cu_xlpe/nyl/pvc_ug_4w_bundled bus1=B98 bus2=B643 length=0.00566018792309 units=km phases=4
new line.L_1980 lineCode=ugsc_16cu_xlpe/nyl/pvc_ug_4w_bundled bus1=B1734 bus2=B3039 length=0.00563661444008 units=km phases=4
new line.L_1992 lineCode=ughv_400al_triplex_ug_4w_bundled bus1=B2338 bus2=B2402 length=0.000244629175463 units=km phases=4
new line.L_2065 lineCode=ugsc_16cu_xlpe/nyl/pvc_ug_4w_bundled bus1=B2438 bus2=B72 length=0.0287648667318 units=km phases=4
new line.L_2103 lineCode=ugsc_16cu_xlpe/nyl/pvc_ug_4w_bundled bus1=B2180 bus2=B1784 length=0.0308207426613 units=km phases=4
new line.L_2106 lineCode=ugsc_16cu_xlpe/nyl/pvc_ug_4w_bundled bus1=B744 bus2=B287 length=0.0291141514791 units=km phases=4
new line.L_2122 lineCode=ughv_400al_triplex_ug_4w_bundled bus1=B1337 bus2=B1317 length=0.000255748683198 units=km phases=4
new line.L_2160 lineCode=ughv_400al_triplex_ug_4w_bundled bus1=B412 bus2=B925 length=7.47735676854e-05 units=km phases=4
new line.L_2173 lineCode=ugsc_16cu_xlpe/nyl/pvc_ug_4w_bundled bus1=B2385 bus2=B1993 length=0.0102773627145 units=km phases=4
new line.L_2191 lineCode=ugsc_16cu_xlpe/nyl/pvc_ug_4w_bundled bus1=B501 bus2=B3106 length=0.0121809544401 units=km phases=4
new line.L_2226 lineCode=ugsc_16cu_xlpe/nyl/pvc_ug_4w_bundled bus1=B229 bus2=B762 length=0.0143161468851 units=km phases=4
new line.L_2237 lineCode=ugsc_16cu_xlpe/nyl/pvc_ug_4w_bundled bus1=B2112 bus2=B1993 length=0.0242009923207 units=km phases=4
new line.L_2265 lineCode=ugsc_16cu_xlpe/nyl/pvc_ug_4w_bundled bus1=B762 bus2=B1513 length=0.00559127637305 units=km phases=4
new line.L_2286 lineCode=ugsc_16cu_xlpe/nyl/pvc_ug_4w_bundled bus1=B1474 bus2=B2579 length=0.0170580517203 units=km phases=4
new line.L_2288 lineCode=ugsc_16cu_xlpe/nyl/pvc_ug_4w_bundled bus1=B1293 bus2=B305 length=0.00964710512162 units=km phases=4
new line.L_2317 lineCode=ugsc_16cu_xlpe/nyl/pvc_ug_4w_bundled bus1=B39 bus2=B1923 length=0.0100350985162 units=km phases=4
new line.L_2332 lineCode=ugsc_16cu_xlpe/nyl/pvc_ug_4w_bundled bus1=B842 bus2=B15 length=0.00982164097560 units=km phases=4
new line.L_2334 lineCode=ugsc_16cu_xlpe/nyl/pvc_ug_4w_bundled bus1=B1971 bus2=B1327 length=0.00587209806018 units=km phases=4
new line.L_2342 lineCode=ugsc_16cu_xlpe/nyl/pvc_ug_4w_bundled bus1=B1831 bus2=B1175 length=0.0128816351706 units=km phases=4
new line.L_2365 lineCode=ugsc_16cu_xlpe/nyl/pvc_ug_4w_bundled bus1=B51 bus2=B2707 length=0.0154996136074 units=km phases=4
new line.L_2452 lineCode=ugsc_16cu_xlpe/nyl/pvc_ug_4w_bundled bus1=B746 bus2=B2445 length=0.00980562395380 units=km phases=4
new line.L_2493 lineCode=ugsc_16cu_xlpe/nyl/pvc_ug_4w_bundled bus1=B2693 bus2=B1679 length=0.00712402918963 units=km phases=4
new line.L_2568 lineCode=ugsc_16cu_xlpe/nyl/pvc_ug_4w_bundled bus1=B3092 bus2=B1202 length=0.0102688322812 units=km phases=4
new line.L_2574 lineCode=ugsc_16cu_xlpe/nyl/pvc_ug_4w_bundled bus1=B2294 bus2=B1172 length=0.0104053657194 units=km phases=4
new line.L_2609 lineCode=ugsc_16cu_xlpe/nyl/pvc_ug_4w_bundled bus1=B679 bus2=B1175 length=0.0588655691730 units=km phases=4
new line.L_2631 lineCode=ugsc_16cu_xlpe/nyl/pvc_ug_4w_bundled bus1=B213 bus2=B667 length=0.00545722139443 units=km phases=4
new line.L_2659 lineCode=ugsc_16cu_xlpe/nyl/pvc_ug_4w_bundled bus1=B305 bus2=B1740 length=0.0236461204407 units=km phases=4
new line.L_2671 lineCode=ugsc_16cu_xlpe/nyl/pvc_ug_4w_bundled bus1=B2520 bus2=B2579 length=0.0154530025487 units=km phases=4
new line.L_2693 lineCode=ugsc_16cu_xlpe/nyl/pvc_ug_4w_bundled bus1=B1169 bus2=B1679 length=0.00552398757386 units=km phases=4
new line.L_2723 lineCode=generic/lv bus1=B1312 bus2=B3248 length=0.0473957730347 units=km phases=4
new line.L_2749 lineCode=ugsc_16cu_xlpe/nyl/pvc_ug_4w_bundled bus1=B643 bus2=B2177 length=0.0208916306862 units=km phases=4
new line.L_2755 lineCode=ugsc_16cu_xlpe/nyl/pvc_ug_4w_bundled bus1=B1002 bus2=B573 length=0.00678714025127 units=km phases=4
new line.L_2761 lineCode=ugsc_16cu_xlpe/nyl/pvc_ug_4w_bundled bus1=B287 bus2=B2133 length=0.0236099060179 units=km phases=4
new line.L_2803 lineCode=ugsc_16cu_xlpe/nyl/pvc_ug_4w_bundled bus1=B2 bus2=B2154 length=0.00697095181239 units=km phases=4
new line.L_2835 lineCode=uglv_240al_xlpe/nyl/pvc_ug_4w_bundled bus1=B2042 bus2=B471 length=0.0254803574170 units=km phases=4
new line.L_2877 lineCode=generic/lv bus1=B1993 bus2=B643 length=0.0416676703889 units=km phases=4
new line.L_2893 lineCode=ugsc_16cu_xlpe/nyl/pvc_ug_4w_bundled bus1=B3371 bus2=B1160 length=0.0270990619084 units=km phases=4
new line.L_2904 lineCode=ugsc_16cu_xlpe/nyl/pvc_ug_4w_bundled bus1=B3337 bus2=B1679 length=0.0176819166421 units=km phases=4
new line.L_2921 lineCode=ugsc_16cu_xlpe/nyl/pvc_ug_4w_bundled bus1=B5 bus2=B287 length=0.0148805024311 units=km phases=4
new line.L_2925 lineCode=ugsc_16cu_xlpe/nyl/pvc_ug_4w_bundled bus1=B3221 bus2=B2953 length=0.00960337676413 units=km phases=4
new line.L_2931 lineCode=ugsc_16cu_xlpe/nyl/pvc_ug_4w_bundled bus1=B1281 bus2=B176 length=0.0270405518000 units=km phases=4
new line.L_2932 lineCode=ugsc_16cu_xlpe/nyl/pvc_ug_4w_bundled bus1=B3308 bus2=B3340 length=0.0176903327326 units=km phases=4
new line.L_2947 lineCode=ugsc_16cu_xlpe/nyl/pvc_ug_4w_bundled bus1=B1781 bus2=B2707 length=0.0107424929068 units=km phases=4
new line.L_3013 lineCode=ugsc_16cu_xlpe/nyl/pvc_ug_4w_bundled bus1=B7 bus2=B471 length=0.00960077160505 units=km phases=4
new line.L_3031 lineCode=generic/lv bus1=B669 bus2=B3106 length=0.0445088839307 units=km phases=4
new line.L_3088 lineCode=ughv_400al_triplex_ug_4w_bundled bus1=B3172 bus2=B3053 length=7.47735676854e-05 units=km phases=4
new line.L_3101 lineCode=ugsc_16cu_xlpe/nyl/pvc_ug_4w_bundled bus1=B2354 bus2=B3390 length=0.0135384723592 units=km phases=4
new line.L_3105 lineCode=uglv_240al_xlpe/nyl/pvc_ug_4w_bundled bus1=B988 bus2=B3408 length=0.0388819164678 units=km phases=4
new line.L_3126 lineCode=ugsc_16cu_xlpe/nyl/pvc_ug_4w_bundled bus1=B600 bus2=B2838 length=0.0154845334697 units=km phases=4
new line.L_3160 lineCode=ugsc_16cu_xlpe/nyl/pvc_ug_4w_bundled bus1=B2707 bus2=B1377 length=0.0126996035446 units=km phases=4
new line.L_3262 lineCode=uglv_240al_xlpe/nyl/pvc_ug_4w_bundled bus1=B1172 bus2=B1312 length=0.0420107948190 units=km phases=4
new line.L_3265 lineCode=ughv_400al_triplex_ug_4w_bundled bus1=B3131 bus2=B763 length=6.69200664901e-05 units=km phases=4
new line.L_3287 lineCode=ugsc_16cu_xlpe/nyl/pvc_ug_4w_bundled bus1=B2996 bus2=B455 length=0.0141187028993 units=km phases=4
new line.L_3368 lineCode=uglv_240al_xlpe/nyl/pvc_ug_4w_bundled bus1=B1740 bus2=B1172 length=0.0390677359028 units=km phases=4
new line.L_3376 lineCode=ugsc_16cu_xlpe/nyl/pvc_ug_4w_bundled bus1=B287 bus2=B1301 length=0.0213858223835 units=km phases=4
new line.L_3377 lineCode=ugsc_16cu_xlpe/nyl/pvc_ug_4w_bundled bus1=B2587 bus2=B1312 length=0.0152105396137 units=km phases=4
new line.L_3379 lineCode=uglv_240al_xlpe/nyl/pvc_ug_4w_bundled bus1=B176 bus2=B1740 length=0.0453265337303 units=km phases=4
new line.L_3399 lineCode=ugsc_16cu_xlpe/nyl/pvc_ug_4w_bundled bus1=B272 bus2=B3337 length=0.00884161980507 units=km phases=4
new line.L_3438 lineCode=ugsc_16cu_xlpe/nyl/pvc_ug_4w_bundled bus1=B981 bus2=B3248 length=0.0105160915096 units=km phases=4
new line.L_3454 lineCode=ugsc_16cu_xlpe/nyl/pvc_ug_4w_bundled bus1=B1418 bus2=B762 length=0.0153992949198 units=km phases=4
new line.L_3513 lineCode=ugsc_16cu_xlpe/nyl/pvc_ug_4w_bundled bus1=B2104 bus2=B1740 length=0.00621006858469 units=km phases=4
new line.L_3517 lineCode=ugsc_16cu_xlpe/nyl/pvc_ug_4w_bundled bus1=B745 bus2=B1552 length=0.0197359602399 units=km phases=4
new line.L_3524 lineCode=ugsc_16cu_xlpe/nyl/pvc_ug_4w_bundled bus1=B599 bus2=B2476 length=0.00600192919195 units=km phases=4
new line.L_3549 lineCode=ugsc_16cu_xlpe/nyl/pvc_ug_4w_bundled bus1=B1928 bus2=B1734 length=0.00967676993379 units=km phases=4
new line.L_3557 lineCode=uglv_240al_xlpe/nyl/pvc_ug_4w_bundled bus1=B1202 bus2=B15 length=0.0371486829059 units=km phases=4
new line.L_3573 lineCode=ugsc_16cu_xlpe/nyl/pvc_ug_4w_bundled bus1=B1236 bus2=B3408 length=0.0103252024706 units=km phases=4
new line.L_3621 lineCode=ugsc_16cu_xlpe/nyl/pvc_ug_4w_bundled bus1=B2513 bus2=B2476 length=0.00476635687820 units=km phases=4
new line.L_3637 lineCode=uglv_240al_xlpe/nyl/pvc_ug_4w_bundled bus1=B72 bus2=B2445 length=0.0380535131262 units=km phases=4
new line.L_3647 lineCode=uglv_240al_xlpe/nyl/pvc_ug_4w_bundled bus1=B1784 bus2=B2282 length=0.0414025769768 units=km phases=4
new line.L_3654 lineCode=ugsc_16cu_xlpe/nyl/pvc_ug_4w_bundled bus1=B1949 bus2=B2838 length=0.00726766359112 units=km phases=4
new line.L_3670 lineCode=ugsc_16cu_xlpe/nyl/pvc_ug_4w_bundled bus1=B2476 bus2=B487 length=0.0162139220513 units=km phases=4
new line.L_3693 lineCode=ugsc_16cu_xlpe/nyl/pvc_ug_4w_bundled bus1=B797 bus2=B874 length=0.00749349291152 units=km phases=4
new line.L_3708 lineCode=ugsc_16cu_xlpe/nyl/pvc_ug_4w_bundled bus1=B2310 bus2=B3248 length=0.0103010336824 units=km phases=4
new line.L_3750 lineCode=ugsc_16cu_xlpe/nyl/pvc_ug_4w_bundled bus1=B2212 bus2=B2177 length=0.00957664254707 units=km phases=4
new line.L_3768 lineCode=generic/lv bus1=B455 bus2=B1923 length=0.0197473801315 units=km phases=4
new line.L_3790 lineCode=ugsc_16cu_xlpe/nyl/pvc_ug_4w_bundled bus1=B1318 bus2=B471 length=0.00964378124536 units=km phases=4
new line.L_3817 lineCode=uglv_240al_xlpe/nyl/pvc_ug_4w_bundled bus1=B1784 bus2=B1175 length=0.00686353627295 units=km phases=4
new line.L_3818 lineCode=ugsc_16cu_xlpe/nyl/pvc_ug_4w_bundled bus1=B156 bus2=B1740 length=0.0105547047228 units=km phases=4
new line.L_3881 lineCode=ugsc_16cu_xlpe/nyl/pvc_ug_4w_bundled bus1=B1658 bus2=B1235 length=0.0161325852816 units=km phases=4
new line.L_3891 lineCode=ugsc_16cu_xlpe/nyl/pvc_ug_4w_bundled bus1=B433 bus2=B923 length=0.0103605637393 units=km phases=4
new line.L_3906 lineCode=ugsc_16cu_xlpe/nyl/pvc_ug_4w_bundled bus1=B1550 bus2=B1923 length=0.0100328548944 units=km phases=4
new line.L_3916 lineCode=ugsc_16cu_xlpe/nyl/pvc_ug_4w_bundled bus1=B2103 bus2=B2579 length=0.0170129334073 units=km phases=4
new line.L_3958 lineCode=ugsc_16cu_xlpe/nyl/pvc_ug_4w_bundled bus1=B3084 bus2=B3337 length=0.00494247199339 units=km phases=4
new line.L_3962 lineCode=ughv_400al_triplex_ug_4w_bundled bus1=B1945 bus2=B3408 length=0.000800000000000 units=km phases=4
new line.L_3964 lineCode=ugsc_16cu_xlpe/nyl/pvc_ug_4w_bundled bus1=B505 bus2=B1377 length=0.0101930660225 units=km phases=4
new line.L_4039 lineCode=ugsc_16cu_xlpe/nyl/pvc_ug_4w_bundled bus1=B371 bus2=B1172 length=0.0172848593963 units=km phases=4
new line.L_4042 lineCode=ugsc_16cu_xlpe/nyl/pvc_ug_4w_bundled bus1=B2184 bus2=B988 length=0.0103103125001 units=km phases=4
new line.L_4056 lineCode=ugsc_16cu_xlpe/nyl/pvc_ug_4w_bundled bus1=B998 bus2=B487 length=0.00523355290563 units=km phases=4
new line.L_4083 lineCode=uglv_240al_xlpe/nyl/pvc_ug_4w_bundled bus1=B3340 bus2=B1784 length=0.0193429250797 units=km phases=4
new line.L_4091 lineCode=generic/lv bus1=B287 bus2=B2707 length=0.0618813792783 units=km phases=4
new line.L_4128 lineCode=uglv_240al_xlpe/nyl/pvc_ug_4w_bundled bus1=B1160 bus2=B1055 length=0.0362646237629 units=km phases=4
new line.L_4133 lineCode=ugsc_16cu_xlpe/nyl/pvc_ug_4w_bundled bus1=B2 bus2=B2181 length=0.0515334082809 units=km phases=4
new line.L_4142 lineCode=ugsc_16cu_xlpe/nyl/pvc_ug_4w_bundled bus1=B874 bus2=B319 length=0.0313311725318 units=km phases=4
new line.L_4150 lineCode=ugsc_16cu_xlpe/nyl/pvc_ug_4w_bundled bus1=B1175 bus2=B2 length=0.0341013780945 units=km phases=4
new line.L_4222 lineCode=ugsc_16cu_xlpe/nyl/pvc_ug_4w_bundled bus1=B2462 bus2=B2953 length=0.0198080690862 units=km phases=4
new line.L_4225 lineCode=uglv_240al_xlpe/nyl/pvc_ug_4w_bundled bus1=B2953 bus2=B176 length=0.0336181713784 units=km phases=4
new line.L_4256 lineCode=uglv_240al_xlpe/nyl/pvc_ug_4w_bundled bus1=B1175 bus2=B1202 length=0.0423239841696 units=km phases=4
new line.L_4295 lineCode=ughv_400al_triplex_ug_4w_bundled bus1=B2402 bus2=B3239 length=0.000542158709913 units=km phases=4
new line.L_4354 lineCode=ugsc_16cu_xlpe/nyl/pvc_ug_4w_bundled bus1=B874 bus2=B3408 length=0.0175162712276 units=km phases=4
new line.L_4356 lineCode=ugsc_16cu_xlpe/nyl/pvc_ug_4w_bundled bus1=B37 bus2=B1301 length=0.00978842765688 units=km phases=4
new line.L_4390 lineCode=ugsc_16cu_xlpe/nyl/pvc_ug_4w_bundled bus1=B2697 bus2=B176 length=0.0160988114166 units=km phases=4
new line.L_4392 lineCode=uglv_240al_xlpe/nyl/pvc_ug_4w_bundled bus1=B176 bus2=B2579 length=0.0377557964705 units=km phases=4
new line.L_4426 lineCode=ugsc_16cu_xlpe/nyl/pvc_ug_4w_bundled bus1=B3387 bus2=B1160 length=0.00536440956004 units=km phases=4
new line.L_4437 lineCode=ugsc_16cu_xlpe/nyl/pvc_ug_4w_bundled bus1=B1018 bus2=B407 length=0.0107572320695 units=km phases=4
new line.L_4453 lineCode=ugsc_16cu_xlpe/nyl/pvc_ug_4w_bundled bus1=B2830 bus2=B1312 length=0.0126581711187 units=km phases=4
new line.L_4464 lineCode=uglv_240al_xlpe/nyl/pvc_ug_4w_bundled bus1=B1312 bus2=B3340 length=0.0486918481699 units=km phases=4
new line.L_4466 lineCode=ugsc_16cu_xlpe/nyl/pvc_ug_4w_bundled bus1=B2986 bus2=B2112 length=0.0145563489222 units=km phases=4
new line.L_4519 lineCode=ugsc_16cu_xlpe/nyl/pvc_ug_4w_bundled bus1=B3165 bus2=B1993 length=0.00995062123978 units=km phases=4
new line.L_4544 lineCode=ughv_400al_triplex_ug_4w_bundled bus1=B2402 bus2=B1042 length=0.000328470708064 units=km phases=4
new line.L_4573 lineCode=generic/lv bus1=B287 bus2=B3337 length=0.0511430304137 units=km phases=4
new line.L_4601 lineCode=ugsc_16cu_xlpe/nyl/pvc_ug_4w_bundled bus1=B3326 bus2=B3408 length=0.0103619490218 units=km phases=4
new line.L_4605 lineCode=ugsc_16cu_xlpe/nyl/pvc_ug_4w_bundled bus1=B3251 bus2=B2282 length=0.0315060297009 units=km phases=4
new line.L_4624 lineCode=uglv_240al_xlpe/nyl/pvc_ug_4w_bundled bus1=B1588 bus2=B72 length=0.138051880218 units=km phases=4
new line.L_4661 lineCode=ugsc_16cu_xlpe/nyl/pvc_ug_4w_bundled bus1=B15 bus2=B1235 length=0.0128033544245 units=km phases=4
new line.L_4685 lineCode=ugsc_16cu_xlpe/nyl/pvc_ug_4w_bundled bus1=B196 bus2=B3390 length=0.0110213039358 units=km phases=4
! new line.L_4689 lineCode=ugsc_16cu_xlpe/nyl/pvc_ug_4w_bundled bus1=B3227 bus2=B2 length=0.0582199262566 units=km phases=4
new line.L_4694 lineCode=ugsc_16cu_xlpe/nyl/pvc_ug_4w_bundled bus1=B2344 bus2=B1923 length=0.00509692192095 units=km phases=4
